%%%%%%%%%%%%%%%%%%%%%%%%%%%%%%%%%%%%%%%%%%%%%%%%%%%%%%%%%%%%%%%%%%%%%%%%%%%%%%%%
%                                                                              %
% SU2 configuration file                                                       %
% Case description: RAMC_II MACH 23.9                  		               %
% Author: K.M. Hanquist                                                        %
% Institution: University of Arizona	                                       %
% Date: 2022.Mar.30                                                            %
% File Version 7.0.7 "Blackbird"                                               %
%                                                                              %
%%%%%%%%%%%%%%%%%%%%%%%%%%%%%%%%%%%%%%%%%%%%%%%%%%%%%%%%%%%%%%%%%%%%%%%%%%%%%%%%

% ------------- DIRECT, ADJOINT, AND LINEARIZED PROBLEM DEFINITION ------------%
%
% Physical governing equations (EULER, NAVIER_STOKES,
%                               WAVE_EQUATION, HEAT_EQUATION, FEM_ELASTICITY,
%                               POISSON_EQUATION)
MATH_PROBLEM= DIRECT
SOLVER=NEMO_RANS
KIND_TURB_MODEL=SST
%HYBRID_RANSLES=SA_DES
%DES_CONST=0.65
RESTART_SOL= NO

%------------------------------- GAS MODEL ------------------------------------%
%GAS_MODEL= AIR-5
%GAS_COMPOSITION= ( 0.77, 0.23, 0.0, 0.0, 0.0)
%FLUID_MODEL=SU2_NONEQ
GAS_MODEL= air_5
GAS_COMPOSITION= ( 0.0, 0.0, 0.0, 0.77, 0.23 )
FLUID_MODEL= MUTATIONPP
% Mathematical problem (DIRECT, CONTINUOUS_ADJOINT)
%
% Restart solution (NO, YES)
%
AXISYMMETRIC = YES
%
READ_BINARY_RESTART= YES


INIT_OPTION= TD_CONDITIONS

%FROZEN_MIXTURE= YES

% ----------- COMPRESSIBLE AND INCOMPRESSIBLE FREE-STREAM DEFINITION ----------%
%
% Mach number (non-dimensional, based on the free-stream values)
MACH_NUMBER= 21.17
%
% Angle of attack (degrees)
AOA= 0.0
%
% Side-slip angle (degrees)
SIDESLIP_ANGLE= 0.0
%
% Free-stream pressure (101325.0 N/m^2 by default, only Euler flows)  
FREESTREAM_PRESSURE= 3519.76
%
% Free-stream temperature (288.15 K by default)
FREESTREAM_TEMPERATURE= 219.47
FREESTREAM_TEMPERATURE_VE= 219.47
%
% Reynolds number (non-dimensional, based on the free-stream values)
%REYNOLDS_NUMBER= 10001
%
% ---------------------- REFERENCE VALUE DEFINITION ---------------------------%
%
% Reference origin for moment computation
%REF_ORIGIN_MOMENT_X = 0.10
%REF_ORIGIN_MOMENT_Y = 0.00
%REF_ORIGIN_MOMENT_Z = 0.00
%
% Reference length for pitching, rolling, and yawing non-dimensional moment
REF_LENGTH= 0.09
%
% Reference area for force coefficients (0 implies automatic calculation)
REF_AREA= 0.0 
%
% -------------------- BOUNDARY CONDITION DEFINITION --------------------------%
%
MARKER_SYM= ( symmetry )
MARKER_OUTLET= ( outlet, 2 )
MARKER_ISOTHERMAL= (wall, 300)
MARKER_FAR= ( inlet )
MARKER_PLOTTING= (wall)
%MARKER_MONITORING= (wall)
% ------------- COMMON PARAMETERS DEFINING THE NUMERICAL METHOD ---------------%
%
% Numerical method for spatial gradients (GREEN_GAUSS, LEAST_SQUARES, 
%                                         WEIGHTED_LEAST_SQUARES)
NUM_METHOD_GRAD= WEIGHTED_LEAST_SQUARES
%
% Courant-Friedrichs-Lewy condition of the finest grid
CFL_NUMBER= 0.5
% Adaptive CFL number (NO, YES)
CFL_ADAPT= NO
%
% Parameters of the adaptive CFL number (factor down, factor up, CFL min value,
%                                        CFL max value )
CFL_ADAPT_PARAM= ( 1.5, 0.5, 1.0, 100.0 )
%
% Runge-Kutta alpha coefficients
RK_ALPHA_COEFF= ( 0.66667, 0.66667, 1.000000 )
%
% Number of total iterations
ITER= 10
%
% Linear solver for the implicit formulation (BCGSTAB, FGMRES)
LINEAR_SOLVER= BCGSTAB

%
% Min error of the linear solver for the implicit formulation
LINEAR_SOLVER_ERROR= 1E-6
%
% Max number of iterations of the linear solver for the implicit formulation
LINEAR_SOLVER_ITER= 10
%
% -----------------------------------------------------------------------%
%
% Convective numerical method (JST, LAX-FRIEDRICH, CUSP, ROE, AUSM, HLLC,
%                              TURKEL_PREC, MSW)
CONV_NUM_METHOD_FLOW= AUSM
%
% Spatial numerical order integration (1ST_ORDER, 2ND_ORDER, 2ND_ORDER_LIMITER)
%
MUSCL_FLOW= NO
%
% Slope limiter (VENKATAKRISHNAN, MINMOD)
SLOPE_LIMITER_FLOW= VAN_ALBADA_EDGE
%
% Coefficient for the limiter (smooth regions)
%LIMITER_COEFF= 0.3
%
% 1st, 2nd and 4th order artificial dissipation coefficients
%AD_COEFF_FLOW= ( 0.15, 0.5, 0.02 )
%
% Time discretization (RUNGE-KUTTA_EXPLICIT, EULER_IMPLICIT, EULER_EXPLICIT)
TIME_DISCRE_FLOW= EULER_EXPLICIT

% --------------------------- CONVERGENCE PARAMETERS --------------------------%
%
% Convergence criteria (CAUCHY, RESIDUAL)
%
CONV_FIELD= RESIDUAL
%
% Min value of the residual (log10 of the residual)
CONV_RESIDUAL_MINVAL= -8
%
% Start convergence criteria at iteration number
CONV_STARTITER= 10
%
% Number of elements to apply the criteria
CONV_CAUCHY_ELEMS= 100
%
% Epsilon to control the series convergence
CONV_CAUCHY_EPS= 1E-6

% -------------------- TURBULENT NUMERICAL METHOD DEFINITION ------------------%
%
CONV_NUM_METHOD_TURB= SCALAR_UPWIND
TIME_DISCRE_TURB= EULER_IMPLICIT
CFL_REDUCTION_TURB= 1.0
% ------------------------- INPUT/OUTPUT INFORMATION --------------------------%
%
MESH_FILENAME=IRV.su2
MESH_FORMAT= SU2
SOLUTION_FILENAME= restart_flow.dat 
RESTART_FILENAME= restart_flow.dat  
CONV_FILENAME= output/history
VOLUME_FILENAME= flow
SURFACE_FILENAME= surface_flow
OUTPUT_WRT_FREQ= 10
OUTPUT_FILES= (SURFACE_TECPLOT, RESTART, TECPLOT)
SCREEN_WRT_FREQ_INNER= 1
SCREEN_OUTPUT= (INNER_ITER, WALL_TIME, RMS_DENSITY_N2, RMS_ENERGY, LIFT, DRAG)
HISTORY_OUTPUT= (ITER, RMS_RES, AERO_COEFF)

